Circuit: * Z:\home\adi\repo\notes\sem3\CTD_LAB\lab_5_volt_regulator\zener_diode_1.asc

Direct Newton iteration for .op point succeeded.

Date: Wed Oct 09 09:38:41 2024
Total elapsed time: 0.059 seconds.

tnom = 27
temp = 27
method = modified trap
totiter = 2123
traniter = 2102
tranpoints = 1052
accept = 1052
rejected = 0
matrix size = 4
fillins = 0
solver = Normal
Matrix Compiler1:       6 opcodes  0.1/[0.1]/0.1
Matrix Compiler2: off  [0.1]/0.1/0.1

