Circuit: * Z:\home\adi\repo\notes\sem3\CTD_LAB\lab_2\Draft1.asc

.OP point found by inspection.

Date: Thu Sep 19 22:23:45 2024
Total elapsed time: 0.052 seconds.

tnom = 27
temp = 27
method = trap
totiter = 45
traniter = 0
tranpoints = 0
accept = 0
rejected = 0
matrix size = 3
fillins = 0
solver = Normal
Matrix Compiler1: 50 bytes object code size
Matrix Compiler2: 175 bytes object code size
