Circuit: * Z:\home\adi\repo\notes\sem3\CTD_LAB\lab_2_hw.asc

.OP point found by inspection.

Date: Thu Sep 12 22:47:40 2024
Total elapsed time: 0.048 seconds.

tnom = 27
temp = 27
method = modified trap
totiter = 2082
traniter = 2082
tranpoints = 1042
accept = 1042
rejected = 0
matrix size = 7
fillins = 0
solver = Normal
Matrix Compiler1:      15 opcodes  0.1/[0.1]/0.1
Matrix Compiler2: off
