Circuit: * Z:\home\adi\repo\notes\sem3\CTD_LAB\lab_3\Draft1.asc


Date: Thu Sep 26 23:42:52 2024
Total elapsed time: 0.036 seconds.

tnom = 27
temp = 27
method = trap
totiter = 0
traniter = 0
tranpoints = 0
accept = 0
rejected = 0
matrix size = 3
fillins = 1
solver = Normal

